Version 4
SHEET 1 3404 868
WIRE 1184 -608 1184 -672
WIRE 2640 -544 2640 -576
WIRE 2992 -544 2880 -544
WIRE 3168 -544 3072 -544
WIRE 2880 -464 2880 -544
WIRE 2912 -464 2880 -464
WIRE 1184 -448 1184 -528
WIRE 1536 -448 1424 -448
WIRE 1712 -448 1616 -448
WIRE 3056 -448 2976 -448
WIRE 3168 -448 3168 -544
WIRE 3168 -448 3136 -448
WIRE 3232 -448 3168 -448
WIRE 3312 -448 3232 -448
WIRE 2640 -432 2640 -464
WIRE 2768 -432 2640 -432
WIRE 2912 -432 2848 -432
WIRE 3168 -400 3168 -448
WIRE 3232 -400 3232 -448
WIRE 2640 -384 2640 -432
WIRE 1424 -368 1424 -448
WIRE 1456 -368 1424 -368
WIRE 1600 -352 1520 -352
WIRE 1712 -352 1712 -448
WIRE 1712 -352 1680 -352
WIRE 1776 -352 1712 -352
WIRE 1856 -352 1776 -352
WIRE 1184 -336 1184 -368
WIRE 1312 -336 1184 -336
WIRE 1456 -336 1392 -336
WIRE 1712 -304 1712 -352
WIRE 1776 -304 1776 -352
WIRE 3168 -304 3168 -336
WIRE 3200 -304 3168 -304
WIRE 3232 -304 3232 -336
WIRE 3232 -304 3200 -304
WIRE 1184 -288 1184 -336
WIRE 3200 -288 3200 -304
WIRE 2640 -272 2640 -304
WIRE 1712 -208 1712 -240
WIRE 1744 -208 1712 -208
WIRE 1776 -208 1776 -240
WIRE 1776 -208 1744 -208
WIRE 1744 -192 1744 -208
WIRE 1184 -176 1184 -208
WIRE 656 -80 656 -112
WIRE 1168 16 1072 16
WIRE 1504 16 1232 16
WIRE 976 48 976 32
WIRE 2624 64 2528 64
WIRE 2960 64 2688 64
WIRE 1072 96 1072 16
WIRE 1280 96 1072 96
WIRE 1504 96 1504 16
WIRE 1504 96 1360 96
WIRE 2528 144 2528 64
WIRE 2736 144 2528 144
WIRE 2960 144 2960 64
WIRE 2960 144 2816 144
WIRE 1072 176 1072 96
WIRE 1072 176 928 176
WIRE 1088 176 1072 176
WIRE 1168 208 1168 176
WIRE 1216 208 1168 208
WIRE 1392 224 1280 224
WIRE 1504 224 1504 96
WIRE 1504 224 1472 224
WIRE 1600 224 1504 224
WIRE 1696 224 1680 224
WIRE 1840 224 1696 224
WIRE 1856 224 1840 224
WIRE 1952 224 1936 224
WIRE 1968 224 1952 224
WIRE 2064 224 2048 224
WIRE 2176 224 2064 224
WIRE 2256 224 2240 224
WIRE 2416 224 2256 224
WIRE 2528 224 2528 144
WIRE 2528 224 2496 224
WIRE 2544 224 2528 224
WIRE 1216 240 1168 240
WIRE 1696 256 1696 224
WIRE 2624 256 2624 224
WIRE 2672 256 2624 256
WIRE 976 272 976 128
WIRE 976 272 928 272
WIRE 1088 272 976 272
WIRE 1168 272 1168 240
WIRE 2848 272 2736 272
WIRE 2960 272 2960 144
WIRE 2960 272 2928 272
WIRE 3056 272 2960 272
WIRE 3168 272 3136 272
WIRE 3296 272 3168 272
WIRE 1840 288 1840 224
WIRE 1952 288 1952 224
WIRE 2064 288 2064 224
WIRE 2256 288 2256 224
WIRE 2672 288 2624 288
WIRE 3168 304 3168 272
WIRE 976 320 976 272
WIRE 1696 352 1696 320
WIRE 1952 400 1952 352
WIRE 1952 400 1920 400
WIRE 3168 400 3168 368
WIRE 1952 416 1952 400
WIRE 2256 416 2256 368
WIRE 976 432 976 400
WIRE 2704 448 2704 416
WIRE 2704 448 2672 448
WIRE 2736 448 2704 448
WIRE 1296 464 1296 432
WIRE 1296 464 1264 464
WIRE 1328 464 1296 464
WIRE 2672 496 2672 448
WIRE 2736 496 2736 448
WIRE 1264 512 1264 464
WIRE 1328 512 1328 464
WIRE 1840 528 1840 352
WIRE 1952 528 1952 496
WIRE 1952 528 1840 528
WIRE 2064 528 2064 352
WIRE 2064 528 1952 528
WIRE 2672 592 2672 560
WIRE 2704 592 2672 592
WIRE 2736 592 2736 560
WIRE 2736 592 2704 592
WIRE 1264 608 1264 576
WIRE 1296 608 1264 608
WIRE 1328 608 1328 576
WIRE 1328 608 1296 608
WIRE 2704 608 2704 592
WIRE 1296 624 1296 608
FLAG 1184 -176 0
FLAG 1184 -672 VCC
FLAG 1744 -192 0
FLAG 1488 -320 0
FLAG 1488 -384 VCC
FLAG 1856 -352 VC2
FLAG 656 0 0
FLAG 656 -112 VCC
FLAG 2704 608 0
FLAG 2704 416 VCC
FLAG 976 32 VCC
FLAG 976 432 0
FLAG 928 272 Anode
FLAG 928 176 Cathode
FLAG 1248 256 0
FLAG 1248 192 VCC
FLAG 1696 352 0
FLAG 1920 400 VC2
FLAG 2256 416 VC2
FLAG 2704 304 0
FLAG 2704 240 VCC
FLAG 2624 288 VC2
FLAG 3168 400 0
FLAG 3296 272 ADCIN
FLAG 1296 624 0
FLAG 1296 432 VCC
FLAG 2640 -272 0
FLAG 2640 -576 VCC
FLAG 3200 -288 0
FLAG 2944 -416 0
FLAG 2944 -480 VCC
FLAG 3312 -448 VC2
SYMBOL res 1168 -464 R0
SYMATTR InstName Potentiometer_50k
SYMATTR Value 50k
SYMBOL res 1168 -304 R0
SYMATTR InstName R2
SYMATTR Value 83k
SYMBOL res 1408 -352 R90
WINDOW 0 0 56 VBottom 2
WINDOW 3 32 56 VTop 2
SYMATTR InstName R3
SYMATTR Value 1k
SYMBOL Opamps\\opamp2 1488 -416 R0
SYMATTR InstName U1
SYMBOL res 1696 -368 R90
WINDOW 0 0 56 VBottom 2
WINDOW 3 32 56 VTop 2
SYMATTR InstName R5
SYMATTR Value 1k
SYMBOL res 1632 -464 R90
WINDOW 0 0 56 VBottom 2
WINDOW 3 32 56 VTop 2
SYMATTR InstName R4
SYMATTR Value 0
SYMBOL cap 1696 -304 R0
SYMATTR InstName C1
SYMATTR Value 10µ
SYMBOL cap 1760 -304 R0
SYMATTR InstName C2
SYMATTR Value u1
SYMBOL voltage 656 -96 R0
WINDOW 123 0 0 Left 2
WINDOW 39 0 0 Left 2
SYMATTR InstName V1
SYMATTR Value 5
SYMBOL cap 2720 496 R0
SYMATTR InstName C3
SYMATTR Value u1
SYMBOL cap 2656 496 R0
SYMATTR InstName C4
SYMATTR Value 10µ
SYMBOL Opamps\\opamp2 1248 160 R0
SYMATTR InstName U2
SYMBOL res 960 32 R0
SYMATTR InstName R6
SYMATTR Value 10k
SYMBOL res 960 304 R0
SYMATTR InstName R7
SYMATTR Value 1k2
SYMBOL res 1184 160 R90
WINDOW 0 0 56 VBottom 2
WINDOW 3 32 56 VTop 2
SYMATTR InstName R8
SYMATTR Value 1k
SYMBOL res 1184 256 R90
WINDOW 0 0 56 VBottom 2
WINDOW 3 32 56 VTop 2
SYMATTR InstName R9
SYMATTR Value 1k
SYMBOL res 1488 208 R90
WINDOW 0 0 56 VBottom 2
WINDOW 3 32 56 VTop 2
SYMATTR InstName R10
SYMATTR Value 1k
SYMBOL res 1376 80 R90
WINDOW 0 0 56 VBottom 2
WINDOW 3 32 56 VTop 2
SYMATTR InstName R11
SYMATTR Value 3900k
SYMBOL cap 1232 0 R90
WINDOW 0 0 32 VBottom 2
WINDOW 3 32 32 VTop 2
SYMATTR InstName C5
SYMATTR Value 330p
SYMBOL res 1696 208 R90
WINDOW 0 0 56 VBottom 2
WINDOW 3 32 56 VTop 2
SYMATTR InstName R12
SYMATTR Value 2k7
SYMBOL cap 1680 256 R0
SYMATTR InstName C6
SYMATTR Value 10µ
SYMBOL res 1952 208 R90
WINDOW 0 0 56 VBottom 2
WINDOW 3 32 56 VTop 2
SYMATTR InstName R13
SYMATTR Value 2k7
SYMBOL res 2064 208 R90
WINDOW 0 0 56 VBottom 2
WINDOW 3 32 56 VTop 2
SYMATTR InstName R14
SYMATTR Value 2k7
SYMBOL cap 1824 288 R0
SYMATTR InstName C7
SYMATTR Value 1µ
SYMBOL cap 2048 288 R0
SYMATTR InstName C8
SYMATTR Value 1µ
SYMBOL cap 1936 288 R0
SYMATTR InstName C9
SYMATTR Value 2µ2
SYMBOL res 1936 400 R0
SYMATTR InstName R15
SYMATTR Value 1k3
SYMBOL cap 2240 208 R90
WINDOW 0 0 32 VBottom 2
WINDOW 3 32 32 VTop 2
SYMATTR InstName C10
SYMATTR Value 4µ7
SYMBOL res 2240 272 R0
SYMATTR InstName R16
SYMATTR Value 42.3k
SYMBOL Opamps\\opamp2 2704 208 R0
SYMATTR InstName U3
SYMBOL res 2640 208 R90
WINDOW 0 0 56 VBottom 2
WINDOW 3 32 56 VTop 2
SYMATTR InstName R17
SYMATTR Value 1k
SYMBOL res 2944 256 R90
WINDOW 0 0 56 VBottom 2
WINDOW 3 32 56 VTop 2
SYMATTR InstName R19
SYMATTR Value 1k
SYMBOL res 2832 128 R90
WINDOW 0 0 56 VBottom 2
WINDOW 3 32 56 VTop 2
SYMATTR InstName R20
SYMATTR Value 12000k
SYMBOL cap 2688 48 R90
WINDOW 0 0 32 VBottom 2
WINDOW 3 32 32 VTop 2
SYMATTR InstName C11
SYMATTR Value 2.2n
SYMBOL res 2512 208 R90
WINDOW 0 0 56 VBottom 2
WINDOW 3 32 56 VTop 2
SYMATTR InstName Potentiometer_100k
SYMATTR Value 100k
SYMBOL res 3152 256 R90
WINDOW 0 0 56 VBottom 2
WINDOW 3 32 56 VTop 2
SYMATTR InstName R21
SYMATTR Value 33k
SYMBOL cap 3152 304 R0
SYMATTR InstName C12
SYMATTR Value 1µ
SYMBOL cap 1312 512 R0
SYMATTR InstName C13
SYMATTR Value u1
SYMBOL cap 1248 512 R0
SYMATTR InstName C14
SYMATTR Value 10µ
SYMBOL res 2624 -560 R0
SYMATTR InstName R18
SYMATTR Value 4k7
SYMBOL res 2624 -400 R0
SYMATTR InstName R22
SYMATTR Value 4k7
SYMBOL res 2864 -448 R90
WINDOW 0 0 56 VBottom 2
WINDOW 3 32 56 VTop 2
SYMATTR InstName R23
SYMATTR Value 1k
SYMBOL Opamps\\opamp2 2944 -512 R0
SYMATTR InstName U4
SYMBOL res 3152 -464 R90
WINDOW 0 0 56 VBottom 2
WINDOW 3 32 56 VTop 2
SYMATTR InstName R24
SYMATTR Value 1k
SYMBOL res 3088 -560 R90
WINDOW 0 0 56 VBottom 2
WINDOW 3 32 56 VTop 2
SYMATTR InstName R25
SYMATTR Value 0
SYMBOL cap 3152 -400 R0
SYMATTR InstName C15
SYMATTR Value 10µ
SYMBOL cap 3216 -400 R0
SYMATTR InstName C16
SYMATTR Value u1
SYMBOL res 1168 -624 R0
SYMATTR InstName R1
SYMATTR Value 50k
TEXT 808 648 Left 2 !.tran 5
TEXT 2752 -688 Left 4 ;2.5V Voltage Reference
TEXT 1456 -704 Left 4 ;Adjustable Voltage Reference
TEXT 1136 -128 Left 4 ;Transinpedance Gain = 4.7M, LPF =125Hz
TEXT 1784 104 Left 4 ;Notch Filter 50Hz
TEXT 2120 152 Left 4 ;HPF = 0.8 Hz
TEXT 2584 -32 Left 4 ;LPF = 6Hz, Gain = 65
TEXT 3008 176 Left 4 ;LPF = 4.8Hz
TEXT 1568 144 Left 4 ;LPF = 6Hz
